DMF oplsaa.ff
 OpenBabel11121410323D

 12 11  0  0  0  0  0  0  0  0999 V2000
    0.9184    0.0283   -0.0337 CTN 0  0  0  0  0  0  0  0  0  0  0  0
    2.3656    0.0426   -0.0467 NCO 0  0  0  0  0  0  0  0  0  0  0  0
    3.0787    0.9606   -0.9117 CTN 0  0  0  0  0  0  0  0  0  0  0  0
    3.0825   -0.8159    0.7612 CO  0  0  0  0  0  0  0  0  0  0  0  0
    4.3029   -0.8830    0.8240 OC  0  0  0  0  0  0  0  0  0  0  0  0
    0.5059    0.7652   -0.7270 H   0  0  0  0  0  0  0  0  0  0  0  0
    0.5734    0.2447    0.9819 H   0  0  0  0  0  0  0  0  0  0  0  0
    0.5737   -0.9722   -0.3116 H   0  0  0  0  0  0  0  0  0  0  0  0
    2.3877    1.5770   -1.4918 H   0  0  0  0  0  0  0  0  0  0  0  0
    3.7149    0.3855   -1.5914 H   0  0  0  0  0  0  0  0  0  0  0  0
    3.7156    1.6043   -0.2973 H   0  0  0  0  0  0  0  0  0  0  0  0
    2.4330   -1.4650    1.3728 HCO 0  0  0  0  0  0  0  0  0  0  0  0
  1  2  1  0  0  0  0
  1  6  1  0  0  0  0
  1  7  1  0  0  0  0
  1  8  1  0  0  0  0
  2  3  1  0  0  0  0
  2  4  1  0  0  0  0
  3  9  1  0  0  0  0
  3 10  1  0  0  0  0
  3 11  1  0  0  0  0
  4  5  2  0  0  0  0
  4 12  1  0  0  0  0
M  END
